LTspice 24.1.8 for Windows
Circuit: C:\Users\Marcin\Desktop\uczelnia\4 sem\ptt\generatorUART\UART-pieklo.net
Start Time: Sun Jun  1 23:44:27 2025
solver = Normal
Maximum thread count: 8
tnom = 27
temp = 27
method = trap
C:\Users\Marcin\Desktop\uczelnia\4 sem\ptt\generatorUART\UART-pieklo.net(18): Limiting rise time to 1e-07.

V4 Clock16 0 PULSE(0 5 0 0 0 1u 6.51us)
^^^^^^^^^^^^^^^^^^^^^^^^^^^^^^^^^^^^^^^
C:\Users\Marcin\Desktop\uczelnia\4 sem\ptt\generatorUART\UART-pieklo.net(18): Limiting fall time to 1e-07.

V4 Clock16 0 PULSE(0 5 0 0 0 1u 6.51us)
^^^^^^^^^^^^^^^^^^^^^^^^^^^^^^^^^^^^^^^
WARNING: Node nc_02 is floating.

Direct Newton iteration failed to find .op point.  (Use ".option noopiter" to skip.)
Starting Gmin stepping
Gmin = 10
Gmin = 1.07374
Gmin = 0.115292
Gmin = 0.0123794
Gmin = 0.00132923
Gmin = 0.000142725
Gmin = 1.5325e-05
Gmin = 1.6455e-06
Gmin = 1.76685e-07
Gmin = 1.89714e-08
Gmin = 2.03704e-09
Gmin = 2.18725e-10
Gmin = 2.34854e-11
Gmin = 2.52173e-12
Gmin = 2.70769e-13
Gmin = 0
Gmin stepping succeeded in finding the operating point.

Total elapsed time: 4.482 seconds.

Files loaded:
C:\Users\Marcin\Desktop\uczelnia\4 sem\ptt\generatorUART\UART-pieklo.net
C:\Users\Marcin\AppData\Local\LTspice\lib\sub\UniversalOpAmp2.lib

y0: V(y11)=0 at 0.001144
y1: V(y10)=1 at 0.001144
y2: V(y9)=0 at 0.001144
y3: V(y8)=0 at 0.001144
y4: V(y7)=1 at 0.001144
y5: V(y6)=0 at 0.001144
y6: V(y5)=0 at 0.001144
y7: V(y4)=0 at 0.001144
y8: V(y3)=1 at 0.001144
y9: V(y2)=1 at 0.001144
y10: V(y1)=1 at 0.001144
